#############################################################
#             ______       _    _          _                #
#            (_____ \     \ \  / /        | |               #
#             _____) )   _ \ \/ / |_  ____| |               #
#            |  ____/ | | | )  (|  _)/ _  | |               #
#            | |    | |_| |/ /\ \ |_( (_| | |___            #
#            |_|     \__  /_/  \_\___)__|_|_____)           #
#                   (____/                                  #
#---------------------(version    0.6.4)--------------------#
#       A Python package for random crystal generation      #
#       url: https://github.com/qzhu2017/pyxtal             #
#       @Zhu's group at University of Nevada Las Vegas      #
#############################################################
data_

_symmetry_space_group_name_H-M 'Pbcn'
_symmetry_Int_Tables_number                   60
_symmetry_cell_setting              orthorhombic
_cell_length_a            9.786289
_cell_length_b           14.452021
_cell_length_c           10.733000
_cell_angle_alpha        90.000000
_cell_angle_beta         90.000000
_cell_angle_gamma        90.000000
_cell_volume           1517.986067

loop_
 _symmetry_equiv_pos_site_id
 _symmetry_equiv_pos_as_xyz
1 'x, y, z'
2 '-x+1/2, -y+1/2, z+1/2'
3 '-x, y, -z+1/2'
4 'x+1/2, -y+1/2, -z'
5 '-x, -y, -z'
6 'x+1/2, y+1/2, -z+1/2'
7 'x, -y, z+1/2'
8 '-x+1/2, y+1/2, z'

loop_
 _atom_site_label
 _atom_site_type_symbol
 _atom_site_symmetry_multiplicity
 _atom_site_Wyckoff_symbol
 _atom_site_fract_x
 _atom_site_fract_y
 _atom_site_fract_z
 _atom_site_occupancy
Ge     Ge       8 d     0.178504    0.465094    0.806707 1
Ge     Ge       8 d     0.643440    0.057829    0.365618 1
Ge     Ge       4 a     0.000000    0.000000    0.000000 1
Na     Na       8 d     0.122108    0.800445    0.166508 1
Na     Na       4 c     0.000000    0.399086    0.250000 1
Na     Na       4 b     0.000000    0.500000    0.000000 1
O      O        8 d     0.201882    0.956508    0.925649 1
O      O        8 d     0.544374    0.583874    0.667119 1
O      O        4 c     0.000000    0.130291    0.250000 1
O      O        8 d     0.790223    0.737430    0.067899 1
O      O        8 d     0.437345    0.102834    0.303804 1
O      O        8 d     0.022839    0.554035    0.916435 1
O      O        4 c     0.000000    0.269691    0.250000 1
O      O        8 d     0.648816    0.215802    0.312739 1
O      O        8 d     0.905766    0.762623    0.119034 1
Sn     Sn       8 d     0.763042    0.956985    0.462499 1
#END

