#############################################################
#             ______       _    _          _                #
#            (_____ \     \ \  / /        | |               #
#             _____) )   _ \ \/ / |_  ____| |               #
#            |  ____/ | | | )  (|  _)/ _  | |               #
#            | |    | |_| |/ /\ \ |_( (_| | |___            #
#            |_|     \__  /_/  \_\___)__|_|_____)           #
#                   (____/                                  #
#---------------------(version    0.6.4)--------------------#
#       A Python package for random crystal generation      #
#       url: https://github.com/qzhu2017/pyxtal             #
#       @Zhu's group at University of Nevada Las Vegas      #
#############################################################
data_

_symmetry_space_group_name_H-M 'Pbcn'
_symmetry_Int_Tables_number                   60
_symmetry_cell_setting              orthorhombic
_cell_length_a           15.427879
_cell_length_b            9.998085
_cell_length_c            9.149255
_cell_angle_alpha        90.000000
_cell_angle_beta         90.000000
_cell_angle_gamma        90.000000
_cell_volume           1411.265684

loop_
 _symmetry_equiv_pos_site_id
 _symmetry_equiv_pos_as_xyz
1 'x, y, z'
2 '-x+1/2, -y+1/2, z+1/2'
3 '-x, y, -z+1/2'
4 'x+1/2, -y+1/2, -z'
5 '-x, -y, -z'
6 'x+1/2, y+1/2, -z+1/2'
7 'x, -y, z+1/2'
8 '-x+1/2, y+1/2, z'

loop_
 _atom_site_label
 _atom_site_type_symbol
 _atom_site_symmetry_multiplicity
 _atom_site_Wyckoff_symbol
 _atom_site_fract_x
 _atom_site_fract_y
 _atom_site_fract_z
 _atom_site_occupancy
Ge     Ge       8 d     0.139320    0.698871    0.703173 1
Ge     Ge       8 d     0.853202    0.629011    0.173529 1
Ge     Ge       4 b     0.000000    0.500000    0.000000 1
Na     Na       4 a     0.000000    0.000000    0.000000 1
Na     Na       8 d     0.203472    0.973705    0.865472 1
Na     Na       4 c     0.000000    0.894559    0.250000 1
O      O        8 d     0.711921    0.932721    0.458420 1
O      O        8 d     0.108711    0.379794    0.117550 1
O      O        8 d     0.666404    0.388376    0.471859 1
O      O        8 d     0.383915    0.098991    0.699600 1
O      O        8 d     0.968471    0.753010    0.956829 1
O      O        8 d     0.291439    0.856932    0.166823 1
O      O        8 d     0.669968    0.260169    0.486157 1
O      O        4 c     0.000000    0.618969    0.250000 1
O      O        4 c     0.000000    0.145881    0.250000 1
Sn     Sn       8 d     0.937737    0.962768    0.661583 1
#END

