#############################################################
#             ______       _    _          _                #
#            (_____ \     \ \  / /        | |               #
#             _____) )   _ \ \/ / |_  ____| |               #
#            |  ____/ | | | )  (|  _)/ _  | |               #
#            | |    | |_| |/ /\ \ |_( (_| | |___            #
#            |_|     \__  /_/  \_\___)__|_|_____)           #
#                   (____/                                  #
#---------------------(version    0.6.4)--------------------#
#       A Python package for random crystal generation      #
#       url: https://github.com/qzhu2017/pyxtal             #
#       @Zhu's group at University of Nevada Las Vegas      #
#############################################################
data_

_symmetry_space_group_name_H-M 'Pbcn'
_symmetry_Int_Tables_number                   60
_symmetry_cell_setting              orthorhombic
_cell_length_a           16.727562
_cell_length_b            6.573269
_cell_length_c           11.613799
_cell_angle_alpha        90.000000
_cell_angle_beta         90.000000
_cell_angle_gamma        90.000000
_cell_volume           1276.992520

loop_
 _symmetry_equiv_pos_site_id
 _symmetry_equiv_pos_as_xyz
1 'x, y, z'
2 '-x+1/2, -y+1/2, z+1/2'
3 '-x, y, -z+1/2'
4 'x+1/2, -y+1/2, -z'
5 '-x, -y, -z'
6 'x+1/2, y+1/2, -z+1/2'
7 'x, -y, z+1/2'
8 '-x+1/2, y+1/2, z'

loop_
 _atom_site_label
 _atom_site_type_symbol
 _atom_site_symmetry_multiplicity
 _atom_site_Wyckoff_symbol
 _atom_site_fract_x
 _atom_site_fract_y
 _atom_site_fract_z
 _atom_site_occupancy
Ge     Ge       8 d     0.222845    0.039844    0.778757 1
Ge     Ge       4 b     0.000000    0.500000    0.000000 1
Ge     Ge       4 c     0.000000    0.854320    0.250000 1
Ge     Ge       4 a     0.000000    0.000000    0.000000 1
Na     Na       8 d     0.645095    0.962272    0.891018 1
Na     Na       8 d     0.762614    0.949284    0.522053 1
O      O        8 d     0.366471    0.229815    0.917953 1
O      O        8 d     0.760128    0.137090    0.409599 1
O      O        8 d     0.385178    0.558464    0.988251 1
O      O        8 d     0.553634    0.949833    0.468937 1
O      O        8 d     0.923775    0.732189    0.638690 1
O      O        8 d     0.600001    0.007181    0.119214 1
O      O        8 d     0.134363    0.222226    0.720076 1
O      O        8 d     0.353461    0.687721    0.551946 1
Sn     Sn       8 d     0.767961    0.349015    0.808079 1
#END

