
#======================================================================
# CRYSTAL DATA
#----------------------------------------------------------------------
data_VESTA_phase_1

_chemical_name_common                  'Ge5 Na4 O16 Sn2'
_cell_length_a                         6.5063(13)
_cell_length_b                         11.912(2)
_cell_length_c                         18.995(4)
_cell_angle_alpha                      90.000000
_cell_angle_beta                       90.000000
_cell_angle_gamma                      90.000000
_cell_volume                           1472.170373
_space_group_name_H-M_alt              'P b c n'
_space_group_IT_number                 60

loop_
_space_group_symop_operation_xyz
   'x, y, z'
   '-x, -y, -z'
   '-x+1/2, -y+1/2, z+1/2'
   'x+1/2, y+1/2, -z+1/2'
   '-x, y, -z+1/2'
   'x, -y, z+1/2'
   'x+1/2, -y+1/2, -z'
   '-x+1/2, y+1/2, z'

loop_
   _atom_site_label
   _atom_site_occupancy
   _atom_site_fract_x
   _atom_site_fract_y
   _atom_site_fract_z
   _atom_site_adp_type
   _atom_site_U_iso_or_equiv
   _atom_site_type_symbol
   Sn1        1.0     1.21139(4)   0.53302(2)   0.39125(2)  Uani  0.008750 Sn
   Ge1        1.0     0.71374(7)   0.49977(4)   0.43284(2)  Uani  0.009277 Ge
   Ge2        1.0     0.500000     0.16037(5)   0.250000    Uani  0.010400 Ge
   Ge3        1.0     0.46811(7)   0.29472(4)   0.38147(2)  Uani  0.009510 Ge
   Na1        1.0     0.5102(4)    0.23175(18)  0.54532(13) Uani  0.025033 Na
   Na2        1.0     0.000000     0.0175(5)    0.250000    Uani  0.067333 Na
   Na3        1.0     0.000000     0.3839(5)    0.250000    Uani  0.105333 Na
   O1         1.0     0.9156(5)    0.4905(4)    0.37366(18) Uani  0.014933 O
   O2         1.0     0.7815(5)    0.5504(4)    0.51548(17) Uani  0.013467 O
   O3         1.0     0.5144(5)    0.5780(4)    0.3957(2)   Uani  0.014967 O
   O4         1.0     0.6387(5)    0.3568(2)    0.44149(18) Uani  0.013033 O
   O5         1.0     0.3564(5)    0.1877(4)    0.43008(17) Uani  0.013433 O
   O6         1.0     0.2899(7)    0.3845(4)    0.3438(2)   Uani  0.018000 O
   O7         1.0     0.6240(5)    0.2472(4)    0.31214(17) Uani  0.014067 O
   O8         1.0     0.2988(5)    0.0892(4)    0.2893(2)   Uani  0.017400 O

loop_
   _atom_site_aniso_label
   _atom_site_aniso_U_11
   _atom_site_aniso_U_22
   _atom_site_aniso_U_33
   _atom_site_aniso_U_12
   _atom_site_aniso_U_13
   _atom_site_aniso_U_23
   Sn1	 0.00828  0.00862  0.00935  0.00072 -0.00011  0.00018
   Ge1	 0.00840  0.00983  0.00960 -0.00007 -0.00037 -0.00032
   Ge2	 0.01030  0.01080  0.01010  0.00000  0.00180  0.00000
   Ge3	 0.01020  0.00830  0.01003 -0.00001 -0.00006 -0.00056
   Na1	 0.02250  0.02450  0.02810 -0.00420 -0.00390 -0.00310
   Na2	 0.04200  0.08800  0.07200  0.00000 -0.03700  0.00000
   Na3	 0.17600  0.06300  0.07700  0.00000 -0.08400  0.00000
   O1	 0.00780  0.02460  0.01240 -0.00290  0.00130 -0.00420
   O2	 0.01950  0.01180  0.00910 -0.00250 -0.00090 -0.00030
   O3	 0.00750  0.01510  0.02230  0.00040 -0.00220  0.00640
   O4	 0.01520  0.00900  0.01490 -0.00340 -0.00360 -0.00110
   O5	 0.01740  0.00910  0.01380 -0.00530  0.00230 -0.00140
   O6	 0.02270  0.01590  0.01540  0.00920 -0.00850 -0.00540
   O7	 0.01390  0.01520  0.01310 -0.00250  0.00130 -0.00620
   O8	 0.01310  0.02360  0.01550 -0.00520  0.00010  0.00670
